18
# Frame Number: 1
O    10.07562000   5.99198000  13.09495000
N     9.76516000   3.76157000  12.56258000
N     7.64477000   2.80509000  12.05658000
N     7.03147000   6.24899000  12.71676000
N     5.84548000   4.44765000  12.15961000
N     9.42586000   1.80171000  12.08509000
C     8.95849000   2.74869000  12.22699000
C     7.14458000   4.03288000  12.25176000
C     7.87362000   5.14872000  12.59934000
C     9.25032000   4.98516000  12.75791000
C     5.84288000   5.80066000  12.44797000
C     4.73409000   3.59931000  11.77801000
H     4.94424000   6.36666000  12.43604000
H     5.10454000   2.90538000  11.04799000
H    10.45000000   1.70000000  12.08509000
H     9.40000000   0.80000000  12.08509000
H     4.20000000   4.10000000  11.04800000
H     4.15000000   3.05000000  12.50000000
